_eclasses_=toolchain-funcs	4b8d3388c0a6e798504e20ba30b49361	distutils-r1	fbebe7ad62dbe4583baab75733f8aa0	multilib	df4e4d5cfd3d137d0c248e1991c0e4d6	python-r1	cafc0cf4ff05a561eb084acb586152e	multibuild	4550e10791f720f7af3fdd911aedf518	multiprocessing	d769539d9bace6eaca30af23bc2b4dde	eutils	351a78113be5b393c09a2c948701ad36	python-utils-r1	c595450196ccd7d3fac66424be096ffc
_md5_=d5b9796940c92da84a340399fc286cb
SLOT=0
DEFINED_PHASES=compile configure install prepare test
EAPI=5
DEPEND=dev-python/setuptools[python_targets_python2_7(-)?,python_targets_python3_3(-)?,python_targets_python3_4(-)?,-python_single_target_python2_7(-),-python_single_target_python3_3(-),-python_single_target_python3_4(-)] test? ( dev-python/oct2py[python_targets_python2_7(-)?,python_targets_python3_3(-)?,python_targets_python3_4(-)?,-python_single_target_python2_7(-),-python_single_target_python3_3(-),-python_single_target_python3_4(-)] dev-python/pytest[python_targets_python2_7(-)?,python_targets_python3_3(-)?,python_targets_python3_4(-)?,-python_single_target_python2_7(-),-python_single_target_python3_3(-),-python_single_target_python3_4(-)] sci-libs/scipy[python_targets_python2_7(-)?,python_targets_python3_3(-)?,python_targets_python3_4(-)?,-python_single_target_python2_7(-),-python_single_target_python3_3(-),-python_single_target_python3_4(-)] ) python_targets_python2_7? ( >=dev-lang/python-2.7.5-r2:2.7 ) python_targets_python3_3? ( >=dev-lang/python-3.3.2-r2:3.3 ) python_targets_python3_4? ( dev-lang/python:3.4 ) >=dev-lang/python-exec-2:=[python_targets_python2_7(-)?,python_targets_python3_3(-)?,python_targets_python3_4(-)?,-python_single_target_python2_7(-),-python_single_target_python3_3(-),-python_single_target_python3_4(-)]
DESCRIPTION=Python version of the SEAWATER 3.2 MATLAB toolkit for calculating the properties of sea water
LICENSE=MIT
IUSE=test python_targets_python2_7 python_targets_python3_3 python_targets_python3_4
REQUIRED_USE=|| ( python_targets_python2_7 python_targets_python3_3 python_targets_python3_4 )
RESTRICT=test
SRC_URI=mirror://pypi/s/seawater/seawater-3.3.2.tar.gz
KEYWORDS=~amd64 ~x86
HOMEPAGE=http://pypi.python.org/pypi/seawater/
RDEPEND=dev-python/numpy[python_targets_python2_7(-)?,python_targets_python3_3(-)?,python_targets_python3_4(-)?,-python_single_target_python2_7(-),-python_single_target_python3_3(-),-python_single_target_python3_4(-)] python_targets_python2_7? ( >=dev-lang/python-2.7.5-r2:2.7 ) python_targets_python3_3? ( >=dev-lang/python-3.3.2-r2:3.3 ) python_targets_python3_4? ( dev-lang/python:3.4 ) >=dev-lang/python-exec-2:=[python_targets_python2_7(-)?,python_targets_python3_3(-)?,python_targets_python3_4(-)?,-python_single_target_python2_7(-),-python_single_target_python3_3(-),-python_single_target_python3_4(-)]
