DEFINED_PHASES=compile configure install prepare test
DEPEND=dev-python/setuptools[python_targets_python2_7(-)?,-python_single_target_python2_7(-)] python_targets_python2_7? ( >=dev-lang/python-2.7.5-r2:2.7 ) >=dev-lang/python-exec-2:=[python_targets_python2_7(-)?,-python_single_target_python2_7(-)]
DESCRIPTION=Python version of the SEAWATER 3.2 MATLAB toolkit for calculating the properties of sea water
EAPI=5
HOMEPAGE=https://pypi.python.org/pypi/seawater/
IUSE=python_targets_python2_7
KEYWORDS=amd64 x86
LICENSE=MIT
RDEPEND=dev-python/numpy[python_targets_python2_7(-)?,-python_single_target_python2_7(-)] python_targets_python2_7? ( >=dev-lang/python-2.7.5-r2:2.7 ) >=dev-lang/python-exec-2:=[python_targets_python2_7(-)?,-python_single_target_python2_7(-)]
REQUIRED_USE=|| ( python_targets_python2_7 )
SLOT=0
SRC_URI=mirror://pypi/s/seawater/seawater-2.0.1.tar.gz
_eclass_exported_funcs=src_prepare:distutils-r1 src_configure:distutils-r1 src_compile:distutils-r1 src_test:distutils-r1 src_install:distutils-r1
_eclasses_=distutils-r1	79bc5f4de403751e472e01fdfd98d587	eutils	f20548a2f7b0128068388cd2ec26708a	multibuild	706332a8d833c077e1aa37faa1ebf162	multilib	3972ca401cf7dbb430df9995f5d8d580	multiprocessing	e32940a7b2a9992ad217eccddb84d548	python-r1	ead0b4e7f0f35d7ae8b91da6e3822535	python-utils-r1	8ec5e254835cd148a8a87f4aaf53b17f	toolchain-funcs	7a212e5e01adfa4805c9978366e6ee85
_md5_=e0d828896fe07ec516f0f4b1d727db05
